# generated using pymatgen
data_Sr8Fe8S8O4F7
_symmetry_space_group_name_H-M   'P 1'
_cell_length_a   8.19136347
_cell_length_b   8.19136347
_cell_length_c   9.56011661
_cell_angle_alpha   102.36898931
_cell_angle_beta   102.36898931
_cell_angle_gamma   90.00000000
_symmetry_Int_Tables_number   1
_chemical_formula_structural   Sr8Fe8S8O4F7
_chemical_formula_sum   'Sr56 Fe56 S56 O28 F49'
_cell_volume   611.32723265
_cell_formula_units_Z   7
loop_
 _symmetry_equiv_pos_site_id
 _symmetry_equiv_pos_as_xyz
  1  'x, y, z'
loop_
 _atom_site_type_symbol
 _atom_site_label
 _atom_site_symmetry_multiplicity
 _atom_site_fract_x
 _atom_site_fract_y
 _atom_site_fract_z
 _atom_site_occupancy
  F  F0  1  0.37500000  0.12500000  0.50000000  1
  F  F1  1  0.37500000  0.62500000  0.50000000  1
  F  F2  1  0.87500000  0.12500000  0.50000000  1
  F  F3  1  0.87500000  0.62500000  0.50000000  1
  F  F4  1  0.12500000  0.37500000  0.50000000  1
  F  F5  1  0.62500000  0.37500000  0.50000000  1
  F  F6  1  0.62500000  0.87500000  0.50000000  1
  Sr  Sr7  1  0.16417800  0.16417800  0.65671200  1
  Sr  Sr8  1  0.16417800  0.66417800  0.65671200  1
  Sr  Sr9  1  0.66417800  0.16417800  0.65671200  1
  Sr  Sr10  1  0.66417800  0.66417800  0.65671200  1
  Sr  Sr11  1  0.33582200  0.33582200  0.34328800  1
  Sr  Sr12  1  0.33582200  0.83582200  0.34328800  1
  Sr  Sr13  1  0.83582200  0.33582200  0.34328800  1
  Sr  Sr14  1  0.83582200  0.83582200  0.34328800  1
  Fe  Fe15  1  0.00000000  0.25000000  0.00000000  1
  Fe  Fe16  1  0.00000000  0.75000000  0.00000000  1
  Fe  Fe17  1  0.50000000  0.25000000  0.00000000  1
  Fe  Fe18  1  0.50000000  0.75000000  0.00000000  1
  Fe  Fe19  1  0.25000000  0.00000000  0.00000000  1
  Fe  Fe20  1  0.25000000  0.50000000  0.00000000  1
  Fe  Fe21  1  0.75000000  0.00000000  0.00000000  1
  Fe  Fe22  1  0.75000000  0.50000000  0.00000000  1
  S  S23  1  0.04731625  0.04731625  0.18926500  1
  S  S24  1  0.04731625  0.54731625  0.18926500  1
  S  S25  1  0.54731625  0.04731625  0.18926500  1
  S  S26  1  0.54731625  0.54731625  0.18926500  1
  S  S27  1  0.45268375  0.45268375  0.81073500  1
  S  S28  1  0.45268375  0.95268375  0.81073500  1
  S  S29  1  0.95268375  0.45268375  0.81073500  1
  S  S30  1  0.95268375  0.95268375  0.81073500  1
  O  O31  1  0.25000000  0.25000000  0.00000000  1
  O  O32  1  0.25000000  0.75000000  0.00000000  1
  O  O33  1  0.75000000  0.25000000  0.00000000  1
  O  O34  1  0.75000000  0.75000000  0.00000000  1
  F  F35  1  0.33333333  0.08333333  0.50000000  1
  F  F36  1  0.37500000  0.62500000  0.50000000  1
  F  F37  1  0.87500000  0.12500000  0.50000000  1
  F  F38  1  0.87500000  0.62500000  0.50000000  1
  F  F39  1  0.12500000  0.37500000  0.50000000  1
  F  F40  1  0.62500000  0.37500000  0.50000000  1
  F  F41  1  0.62500000  0.87500000  0.50000000  1
  Sr  Sr42  1  0.16417800  0.16417800  0.65671200  1
  Sr  Sr43  1  0.16417800  0.66417800  0.65671200  1
  Sr  Sr44  1  0.66417800  0.16417800  0.65671200  1
  Sr  Sr45  1  0.66417800  0.66417800  0.65671200  1
  Sr  Sr46  1  0.33582200  0.33582200  0.34328800  1
  Sr  Sr47  1  0.33582200  0.83582200  0.34328800  1
  Sr  Sr48  1  0.83582200  0.33582200  0.34328800  1
  Sr  Sr49  1  0.83582200  0.83582200  0.34328800  1
  Fe  Fe50  1  0.00000000  0.25000000  0.00000000  1
  Fe  Fe51  1  0.00000000  0.75000000  0.00000000  1
  Fe  Fe52  1  0.50000000  0.25000000  0.00000000  1
  Fe  Fe53  1  0.50000000  0.75000000  0.00000000  1
  Fe  Fe54  1  0.25000000  0.00000000  0.00000000  1
  Fe  Fe55  1  0.25000000  0.50000000  0.00000000  1
  Fe  Fe56  1  0.75000000  0.00000000  0.00000000  1
  Fe  Fe57  1  0.75000000  0.50000000  0.00000000  1
  S  S58  1  0.04731625  0.04731625  0.18926500  1
  S  S59  1  0.04731625  0.54731625  0.18926500  1
  S  S60  1  0.54731625  0.04731625  0.18926500  1
  S  S61  1  0.54731625  0.54731625  0.18926500  1
  S  S62  1  0.45268375  0.45268375  0.81073500  1
  S  S63  1  0.45268375  0.95268375  0.81073500  1
  S  S64  1  0.95268375  0.45268375  0.81073500  1
  S  S65  1  0.95268375  0.95268375  0.81073500  1
  O  O66  1  0.25000000  0.25000000  0.00000000  1
  O  O67  1  0.25000000  0.75000000  0.00000000  1
  O  O68  1  0.75000000  0.25000000  0.00000000  1
  O  O69  1  0.75000000  0.75000000  0.00000000  1
  F  F70  1  0.29166667  0.04166667  0.50000000  1
  F  F71  1  0.37500000  0.62500000  0.50000000  1
  F  F72  1  0.87500000  0.12500000  0.50000000  1
  F  F73  1  0.87500000  0.62500000  0.50000000  1
  F  F74  1  0.12500000  0.37500000  0.50000000  1
  F  F75  1  0.62500000  0.37500000  0.50000000  1
  F  F76  1  0.62500000  0.87500000  0.50000000  1
  Sr  Sr77  1  0.16417800  0.16417800  0.65671200  1
  Sr  Sr78  1  0.16417800  0.66417800  0.65671200  1
  Sr  Sr79  1  0.66417800  0.16417800  0.65671200  1
  Sr  Sr80  1  0.66417800  0.66417800  0.65671200  1
  Sr  Sr81  1  0.33582200  0.33582200  0.34328800  1
  Sr  Sr82  1  0.33582200  0.83582200  0.34328800  1
  Sr  Sr83  1  0.83582200  0.33582200  0.34328800  1
  Sr  Sr84  1  0.83582200  0.83582200  0.34328800  1
  Fe  Fe85  1  0.00000000  0.25000000  0.00000000  1
  Fe  Fe86  1  0.00000000  0.75000000  0.00000000  1
  Fe  Fe87  1  0.50000000  0.25000000  0.00000000  1
  Fe  Fe88  1  0.50000000  0.75000000  0.00000000  1
  Fe  Fe89  1  0.25000000  0.00000000  0.00000000  1
  Fe  Fe90  1  0.25000000  0.50000000  0.00000000  1
  Fe  Fe91  1  0.75000000  0.00000000  0.00000000  1
  Fe  Fe92  1  0.75000000  0.50000000  0.00000000  1
  S  S93  1  0.04731625  0.04731625  0.18926500  1
  S  S94  1  0.04731625  0.54731625  0.18926500  1
  S  S95  1  0.54731625  0.04731625  0.18926500  1
  S  S96  1  0.54731625  0.54731625  0.18926500  1
  S  S97  1  0.45268375  0.45268375  0.81073500  1
  S  S98  1  0.45268375  0.95268375  0.81073500  1
  S  S99  1  0.95268375  0.45268375  0.81073500  1
  S  S100  1  0.95268375  0.95268375  0.81073500  1
  O  O101  1  0.25000000  0.25000000  0.00000000  1
  O  O102  1  0.25000000  0.75000000  0.00000000  1
  O  O103  1  0.75000000  0.25000000  0.00000000  1
  O  O104  1  0.75000000  0.75000000  0.00000000  1
  F  F105  1  0.25000000  0.00000000  0.50000000  1
  F  F106  1  0.37500000  0.62500000  0.50000000  1
  F  F107  1  0.87500000  0.12500000  0.50000000  1
  F  F108  1  0.87500000  0.62500000  0.50000000  1
  F  F109  1  0.12500000  0.37500000  0.50000000  1
  F  F110  1  0.62500000  0.37500000  0.50000000  1
  F  F111  1  0.62500000  0.87500000  0.50000000  1
  Sr  Sr112  1  0.16417800  0.16417800  0.65671200  1
  Sr  Sr113  1  0.16417800  0.66417800  0.65671200  1
  Sr  Sr114  1  0.66417800  0.16417800  0.65671200  1
  Sr  Sr115  1  0.66417800  0.66417800  0.65671200  1
  Sr  Sr116  1  0.33582200  0.33582200  0.34328800  1
  Sr  Sr117  1  0.33582200  0.83582200  0.34328800  1
  Sr  Sr118  1  0.83582200  0.33582200  0.34328800  1
  Sr  Sr119  1  0.83582200  0.83582200  0.34328800  1
  Fe  Fe120  1  0.00000000  0.25000000  0.00000000  1
  Fe  Fe121  1  0.00000000  0.75000000  0.00000000  1
  Fe  Fe122  1  0.50000000  0.25000000  0.00000000  1
  Fe  Fe123  1  0.50000000  0.75000000  0.00000000  1
  Fe  Fe124  1  0.25000000  0.00000000  0.00000000  1
  Fe  Fe125  1  0.25000000  0.50000000  0.00000000  1
  Fe  Fe126  1  0.75000000  0.00000000  0.00000000  1
  Fe  Fe127  1  0.75000000  0.50000000  0.00000000  1
  S  S128  1  0.04731625  0.04731625  0.18926500  1
  S  S129  1  0.04731625  0.54731625  0.18926500  1
  S  S130  1  0.54731625  0.04731625  0.18926500  1
  S  S131  1  0.54731625  0.54731625  0.18926500  1
  S  S132  1  0.45268375  0.45268375  0.81073500  1
  S  S133  1  0.45268375  0.95268375  0.81073500  1
  S  S134  1  0.95268375  0.45268375  0.81073500  1
  S  S135  1  0.95268375  0.95268375  0.81073500  1
  O  O136  1  0.25000000  0.25000000  0.00000000  1
  O  O137  1  0.25000000  0.75000000  0.00000000  1
  O  O138  1  0.75000000  0.25000000  0.00000000  1
  O  O139  1  0.75000000  0.75000000  0.00000000  1
  F  F140  1  0.20833333  -0.04166667  0.50000000  1
  F  F141  1  0.37500000  0.62500000  0.50000000  1
  F  F142  1  0.87500000  0.12500000  0.50000000  1
  F  F143  1  0.87500000  0.62500000  0.50000000  1
  F  F144  1  0.12500000  0.37500000  0.50000000  1
  F  F145  1  0.62500000  0.37500000  0.50000000  1
  F  F146  1  0.62500000  0.87500000  0.50000000  1
  Sr  Sr147  1  0.16417800  0.16417800  0.65671200  1
  Sr  Sr148  1  0.16417800  0.66417800  0.65671200  1
  Sr  Sr149  1  0.66417800  0.16417800  0.65671200  1
  Sr  Sr150  1  0.66417800  0.66417800  0.65671200  1
  Sr  Sr151  1  0.33582200  0.33582200  0.34328800  1
  Sr  Sr152  1  0.33582200  0.83582200  0.34328800  1
  Sr  Sr153  1  0.83582200  0.33582200  0.34328800  1
  Sr  Sr154  1  0.83582200  0.83582200  0.34328800  1
  Fe  Fe155  1  0.00000000  0.25000000  0.00000000  1
  Fe  Fe156  1  0.00000000  0.75000000  0.00000000  1
  Fe  Fe157  1  0.50000000  0.25000000  0.00000000  1
  Fe  Fe158  1  0.50000000  0.75000000  0.00000000  1
  Fe  Fe159  1  0.25000000  0.00000000  0.00000000  1
  Fe  Fe160  1  0.25000000  0.50000000  0.00000000  1
  Fe  Fe161  1  0.75000000  0.00000000  0.00000000  1
  Fe  Fe162  1  0.75000000  0.50000000  0.00000000  1
  S  S163  1  0.04731625  0.04731625  0.18926500  1
  S  S164  1  0.04731625  0.54731625  0.18926500  1
  S  S165  1  0.54731625  0.04731625  0.18926500  1
  S  S166  1  0.54731625  0.54731625  0.18926500  1
  S  S167  1  0.45268375  0.45268375  0.81073500  1
  S  S168  1  0.45268375  0.95268375  0.81073500  1
  S  S169  1  0.95268375  0.45268375  0.81073500  1
  S  S170  1  0.95268375  0.95268375  0.81073500  1
  O  O171  1  0.25000000  0.25000000  0.00000000  1
  O  O172  1  0.25000000  0.75000000  0.00000000  1
  O  O173  1  0.75000000  0.25000000  0.00000000  1
  O  O174  1  0.75000000  0.75000000  0.00000000  1
  F  F175  1  0.16666667  -0.08333333  0.50000000  1
  F  F176  1  0.37500000  0.62500000  0.50000000  1
  F  F177  1  0.87500000  0.12500000  0.50000000  1
  F  F178  1  0.87500000  0.62500000  0.50000000  1
  F  F179  1  0.12500000  0.37500000  0.50000000  1
  F  F180  1  0.62500000  0.37500000  0.50000000  1
  F  F181  1  0.62500000  0.87500000  0.50000000  1
  Sr  Sr182  1  0.16417800  0.16417800  0.65671200  1
  Sr  Sr183  1  0.16417800  0.66417800  0.65671200  1
  Sr  Sr184  1  0.66417800  0.16417800  0.65671200  1
  Sr  Sr185  1  0.66417800  0.66417800  0.65671200  1
  Sr  Sr186  1  0.33582200  0.33582200  0.34328800  1
  Sr  Sr187  1  0.33582200  0.83582200  0.34328800  1
  Sr  Sr188  1  0.83582200  0.33582200  0.34328800  1
  Sr  Sr189  1  0.83582200  0.83582200  0.34328800  1
  Fe  Fe190  1  0.00000000  0.25000000  0.00000000  1
  Fe  Fe191  1  0.00000000  0.75000000  0.00000000  1
  Fe  Fe192  1  0.50000000  0.25000000  0.00000000  1
  Fe  Fe193  1  0.50000000  0.75000000  0.00000000  1
  Fe  Fe194  1  0.25000000  0.00000000  0.00000000  1
  Fe  Fe195  1  0.25000000  0.50000000  0.00000000  1
  Fe  Fe196  1  0.75000000  0.00000000  0.00000000  1
  Fe  Fe197  1  0.75000000  0.50000000  0.00000000  1
  S  S198  1  0.04731625  0.04731625  0.18926500  1
  S  S199  1  0.04731625  0.54731625  0.18926500  1
  S  S200  1  0.54731625  0.04731625  0.18926500  1
  S  S201  1  0.54731625  0.54731625  0.18926500  1
  S  S202  1  0.45268375  0.45268375  0.81073500  1
  S  S203  1  0.45268375  0.95268375  0.81073500  1
  S  S204  1  0.95268375  0.45268375  0.81073500  1
  S  S205  1  0.95268375  0.95268375  0.81073500  1
  O  O206  1  0.25000000  0.25000000  0.00000000  1
  O  O207  1  0.25000000  0.75000000  0.00000000  1
  O  O208  1  0.75000000  0.25000000  0.00000000  1
  O  O209  1  0.75000000  0.75000000  0.00000000  1
  F  F210  1  0.12500000  -0.12500000  0.50000000  1
  F  F211  1  0.37500000  0.62500000  0.50000000  1
  F  F212  1  0.87500000  0.12500000  0.50000000  1
  F  F213  1  0.87500000  0.62500000  0.50000000  1
  F  F214  1  0.12500000  0.37500000  0.50000000  1
  F  F215  1  0.62500000  0.37500000  0.50000000  1
  F  F216  1  0.62500000  0.87500000  0.50000000  1
  Sr  Sr217  1  0.16417800  0.16417800  0.65671200  1
  Sr  Sr218  1  0.16417800  0.66417800  0.65671200  1
  Sr  Sr219  1  0.66417800  0.16417800  0.65671200  1
  Sr  Sr220  1  0.66417800  0.66417800  0.65671200  1
  Sr  Sr221  1  0.33582200  0.33582200  0.34328800  1
  Sr  Sr222  1  0.33582200  0.83582200  0.34328800  1
  Sr  Sr223  1  0.83582200  0.33582200  0.34328800  1
  Sr  Sr224  1  0.83582200  0.83582200  0.34328800  1
  Fe  Fe225  1  0.00000000  0.25000000  0.00000000  1
  Fe  Fe226  1  0.00000000  0.75000000  0.00000000  1
  Fe  Fe227  1  0.50000000  0.25000000  0.00000000  1
  Fe  Fe228  1  0.50000000  0.75000000  0.00000000  1
  Fe  Fe229  1  0.25000000  0.00000000  0.00000000  1
  Fe  Fe230  1  0.25000000  0.50000000  0.00000000  1
  Fe  Fe231  1  0.75000000  0.00000000  0.00000000  1
  Fe  Fe232  1  0.75000000  0.50000000  0.00000000  1
  S  S233  1  0.04731625  0.04731625  0.18926500  1
  S  S234  1  0.04731625  0.54731625  0.18926500  1
  S  S235  1  0.54731625  0.04731625  0.18926500  1
  S  S236  1  0.54731625  0.54731625  0.18926500  1
  S  S237  1  0.45268375  0.45268375  0.81073500  1
  S  S238  1  0.45268375  0.95268375  0.81073500  1
  S  S239  1  0.95268375  0.45268375  0.81073500  1
  S  S240  1  0.95268375  0.95268375  0.81073500  1
  O  O241  1  0.25000000  0.25000000  0.00000000  1
  O  O242  1  0.25000000  0.75000000  0.00000000  1
  O  O243  1  0.75000000  0.25000000  0.00000000  1
  O  O244  1  0.75000000  0.75000000  0.00000000  1
