# generated using pymatgen
data_K131Cd79F326
_symmetry_space_group_name_H-M   'P 1'
_cell_length_a   13.33410327
_cell_length_b   13.44463956
_cell_length_c   13.44463916
_cell_angle_alpha   90.00270629
_cell_angle_beta   89.99999996
_cell_angle_gamma   90.00000017
_symmetry_Int_Tables_number   1
_chemical_formula_structural   K131Cd79F326
_chemical_formula_sum   'K131 Cd79 F326'
_cell_volume   2410.25020473
_cell_formula_units_Z   1
loop_
 _symmetry_equiv_pos_site_id
 _symmetry_equiv_pos_as_xyz
  1  'x, y, z'
loop_
 _atom_site_type_symbol
 _atom_site_label
 _atom_site_symmetry_multiplicity
 _atom_site_fract_x
 _atom_site_fract_y
 _atom_site_fract_z
 _atom_site_occupancy
  K  K0  1  0.00784192  -0.00000006  -0.00784227  1
  K  K1  1  0.00769933  0.00000013  0.34122795  1
  K  K2  1  0.00027200  0.00000016  0.66632945  1
  K  K3  1  0.00011119  0.33440105  -0.00011128  1
  K  K4  1  0.00007313  0.33416133  0.33351937  1
  K  K5  1  0.00014119  0.33370041  0.66655116  1
  K  K6  1  0.00011117  0.66559902  -0.00011140  1
  K  K7  1  0.00007308  0.66583867  0.33351931  1
  K  K8  1  0.00014135  0.66629969  0.66655120  1
  K  K9  1  0.33367050  -0.00000002  -0.00027168  1
  K  K10  1  0.33342641  -0.00000003  0.33363073  1
  K  K11  1  0.33341190  -0.00000014  0.66658805  1
  K  K12  1  0.33344868  0.33370057  -0.00014142  1
  K  K13  1  0.33346996  0.33371673  0.33365848  1
  K  K14  1  0.33347752  0.33356514  0.66652230  1
  K  K15  1  0.33344864  0.66629984  -0.00014150  1
  K  K16  1  0.33346975  0.66628332  0.33365839  1
  K  K17  1  0.33347750  0.66643500  0.66652231  1
  K  K18  1  0.65877206  -0.00000016  -0.00769945  1
  K  K19  1  0.65883153  0.00000010  0.34116832  1
  K  K20  1  0.66636909  0.00000000  0.66657356  1
  K  K21  1  0.66648075  0.33416132  -0.00007299  1
  K  K22  1  0.66641012  0.33422348  0.33358991  1
  K  K23  1  0.66634131  0.33371665  0.66653005  1
  K  K24  1  0.66648067  0.66583866  -0.00007323  1
  K  K25  1  0.66641004  0.66577650  0.33358995  1
  K  K26  1  0.66634133  0.66628338  0.66653015  1
  Cd  Cd27  1  0.16628419  0.16651330  0.16665986  1
  Cd  Cd28  1  0.16677789  0.16699830  0.50010489  1
  Cd  Cd29  1  0.16675043  0.16698284  0.83324941  1
  Cd  Cd30  1  0.16661457  0.50000015  0.16669690  1
  Cd  Cd31  1  0.16664690  0.50000009  0.49999715  1
  Cd  Cd32  1  0.16667453  0.50000009  0.83332538  1
  Cd  Cd33  1  0.16628423  0.83348389  0.16665988  1
  Cd  Cd34  1  0.16677788  0.83300177  0.50010470  1
  Cd  Cd35  1  0.16675041  0.83301724  0.83324960  1
  Cd  Cd36  1  0.50036275  0.16652727  0.16668735  1
  Cd  Cd37  1  0.49990215  0.16697829  0.50009777  1
  Cd  Cd38  1  0.49989510  0.16699834  0.83322206  1
  Cd  Cd39  1  0.50006030  0.50000010  0.16665906  1
  Cd  Cd40  1  0.50000758  0.50000008  0.49999236  1
  Cd  Cd41  1  0.50000278  0.50000006  0.83335303  1
  Cd  Cd42  1  0.50036256  0.83347278  0.16668738  1
  Cd  Cd43  1  0.49990214  0.83302179  0.50009773  1
  Cd  Cd44  1  0.49989508  0.83300176  0.83322208  1
  Cd  Cd45  1  0.83333365  0.15673384  0.16666611  1
  Cd  Cd46  1  0.83331254  0.16652729  0.49963723  1
  Cd  Cd47  1  0.83334008  0.16651476  0.83371579  1
  Cd  Cd48  1  0.83330156  0.50000010  0.16669838  1
  Cd  Cd49  1  0.83334085  0.50000008  0.49993964  1
  Cd  Cd50  1  0.83330301  0.50000006  0.83338536  1
  Cd  Cd51  1  0.83333382  0.84326619  0.16666615  1
  Cd  Cd52  1  0.83331257  0.83347278  0.49963722  1
  Cd  Cd53  1  0.83334011  0.83348534  0.83371580  1
  F  F54  1  -0.00015122  0.16174655  0.16668338  1
  F  F55  1  0.00025572  0.16639217  0.49966319  1
  F  F56  1  0.00025294  0.16638063  0.83365491  1
  F  F57  1  0.00022798  0.50000004  0.16668936  1
  F  F58  1  0.00010140  0.50000005  0.50001660  1
  F  F59  1  0.00010769  0.50000004  0.83330117  1
  F  F60  1  -0.00015191  0.83825347  0.16668336  1
  F  F61  1  0.00025568  0.83360794  0.49966325  1
  F  F62  1  0.00025288  0.83361951  0.83365490  1
  F  F63  1  0.33334017  0.16660876  0.16671564  1
  F  F64  1  0.33335612  0.16661689  0.49997260  1
  F  F65  1  0.33333901  0.16663644  0.83332713  1
  F  F66  1  0.33334841  0.50000002  0.16668182  1
  F  F67  1  0.33334429  0.50000004  0.49999527  1
  F  F68  1  0.33334516  0.50000003  0.83332934  1
  F  F69  1  0.33334077  0.83339123  0.16671566  1
  F  F70  1  0.33335616  0.83338324  0.49997264  1
  F  F71  1  0.33333906  0.83336369  0.83332710  1
  F  F72  1  0.66679093  0.16172732  0.16668825  1
  F  F73  1  0.66637998  0.16640389  0.49969607  1
  F  F74  1  0.66639555  0.16642442  0.83358676  1
  F  F75  1  0.66640935  0.50000007  0.16669756  1
  F  F76  1  0.66654039  0.50000007  0.50000972  1
  F  F77  1  0.66653138  0.50000004  0.83329484  1
  F  F78  1  0.66679098  0.83827284  0.16668825  1
  F  F79  1  0.66637998  0.83359620  0.49969605  1
  F  F80  1  0.66639556  0.83357566  0.83358675  1
  F  F81  1  0.16599913  -0.00000319  0.16667678  1
  F  F82  1  0.16632913  0.00000013  0.49963769  1
  F  F83  1  0.16633583  0.00000012  0.83366406  1
  F  F84  1  0.16648042  0.33333874  0.16669487  1
  F  F85  1  0.16665194  0.33342754  0.49999989  1
  F  F86  1  0.16669921  0.33343129  0.83330073  1
  F  F87  1  0.16648040  0.66666127  0.16669490  1
  F  F88  1  0.16665194  0.66657250  0.49999990  1
  F  F89  1  0.16669921  0.66656876  0.83330070  1
  F  F90  1  0.50069394  0.00000012  0.16667614  1
  F  F91  1  0.50030418  0.00000008  0.49969581  1
  F  F92  1  0.50036229  0.00000007  0.83367072  1
  F  F93  1  0.50024223  0.33332530  0.16666777  1
  F  F94  1  0.49999750  0.33343863  0.50000244  1
  F  F95  1  0.50000004  0.33342756  0.83334798  1
  F  F96  1  0.50024227  0.66667476  0.16666778  1
  F  F97  1  0.49999753  0.66656147  0.50000246  1
  F  F98  1  0.50000007  0.66657254  0.83334792  1
  F  F99  1  0.83332380  0.00000007  0.49930599  1
  F  F100  1  0.83332631  0.00000007  0.83400795  1
  F  F101  1  0.83331146  0.33045942  0.16668841  1
  F  F102  1  0.83333216  0.33332529  0.49975767  1
  F  F103  1  0.83330502  0.33333878  0.83351946  1
  F  F104  1  0.83331140  0.66954067  0.16668849  1
  F  F105  1  0.83333212  0.66667480  0.49975767  1
  F  F106  1  0.83330501  0.66666133  0.83351948  1
  F  F107  1  0.16634494  0.16638051  -0.00025266  1
  F  F108  1  0.16641311  0.16642442  0.33360412  1
  F  F109  1  0.16667278  0.16663641  0.66666088  1
  F  F110  1  0.16669872  0.50000005  -0.00010778  1
  F  F111  1  0.16670509  0.50000002  0.33346856  1
  F  F112  1  0.16667057  0.50000005  0.66665475  1
  F  F113  1  0.16634493  0.83361947  -0.00025325  1
  F  F114  1  0.16641311  0.83357560  0.33360472  1
  F  F115  1  0.16667278  0.83336371  0.66666090  1
  F  F116  1  0.50033673  0.16639221  -0.00025578  1
  F  F117  1  0.50030388  0.16640393  0.33361995  1
  F  F118  1  0.50002738  0.16661693  0.66664378  1
  F  F119  1  0.49998334  0.50000006  -0.00010148  1
  F  F120  1  0.49999024  0.50000007  0.33345956  1
  F  F121  1  0.50000468  0.50000006  0.66665563  1
  F  F122  1  0.50033677  0.83360795  -0.00025584  1
  F  F123  1  0.50030389  0.83359620  0.33361998  1
  F  F124  1  0.50002735  0.83338323  0.66664379  1
  F  F125  1  0.83331655  0.16174677  0.00015158  1
  F  F126  1  0.83331170  0.16172728  0.33320900  1
  F  F127  1  0.83328427  0.16660866  0.66665953  1
  F  F128  1  0.83331054  0.50000001  -0.00022806  1
  F  F129  1  0.83330235  0.50000004  0.33359060  1
  F  F130  1  0.83331811  0.50000008  0.66665150  1
  F  F131  1  0.83331652  0.83825337  0.00015159  1
  F  F132  1  0.83331164  0.83827282  0.33320896  1
  F  F133  1  0.83328424  0.83339143  0.66665955  1
  K  K134  1  0.00678728  -0.00155672  -0.00842346  1
  K  K135  1  0.00663553  -0.00149735  0.34192860  1
  K  K136  1  -0.00189414  0.00208977  0.66640605  1
  K  K137  1  -0.00159833  0.33589793  -0.00160118  1
  K  K138  1  -0.00152427  0.33581453  0.33485813  1
  K  K139  1  -0.00217514  0.33069062  0.66657858  1
  K  K140  1  0.00447059  0.66478033  -0.00111222  1
  K  K141  1  0.00456361  0.66513164  0.33434480  1
  K  K142  1  0.00056026  0.66832865  0.66648126  1
  K  K143  1  0.33473610  -0.00443265  -0.00120031  1
  K  K144  1  0.33439314  -0.00450639  0.33443268  1
  K  K145  1  0.33145832  -0.00047368  0.66653638  1
  K  K146  1  0.33782832  0.33475731  0.00024091  1
  K  K147  1  0.33816075  0.33476116  0.33296430  1
  K  K148  1  0.33008130  0.33416109  0.66644345  1
  K  K149  1  0.33300465  0.66678719  0.00104926  1
  K  K150  1  0.33349082  0.66633140  0.33226030  1
  K  K151  1  0.65954972  0.00169365  -0.00664339  1
  K  K152  1  0.65952013  0.00160237  0.33996895  1
  K  K153  1  0.66935480  0.00226967  0.66659764  1
  K  K154  1  0.66594842  0.33445115  -0.00157171  1
  K  K155  1  0.66606987  0.33438447  0.33521480  1
  K  K156  1  0.66861481  0.33139796  0.66647304  1
  K  K157  1  0.66535702  0.66168668  0.00027471  1
  K  K158  1  0.66532988  0.66134219  0.33290955  1
  K  K159  1  0.66574196  0.66975987  0.66648337  1
  Cd  Cd160  1  0.16589898  0.49737952  0.16666945  1
  Cd  Cd161  1  0.16782524  0.83200383  0.16665169  1
  Cd  Cd162  1  0.49963335  0.16510495  0.16667852  1
  Cd  Cd163  1  0.49696166  0.16696958  0.49994961  1
  Cd  Cd164  1  0.49698645  0.16695313  0.83332774  1
  Cd  Cd165  1  0.50157923  0.49847052  0.16665094  1
  Cd  Cd166  1  0.50287853  0.83415584  0.16665799  1
  Cd  Cd167  1  0.83275680  0.16062501  0.16666407  1
  Cd  Cd168  1  0.83322829  0.50297501  0.49983980  1
  Cd  Cd169  1  0.83322736  0.50293244  0.83343035  1
  Cd  Cd170  1  0.83385216  0.83995867  0.16667881  1
  F  F171  1  -0.01755495  0.12562873  0.16672279  1
  F  F172  1  -0.00004936  0.16552825  0.50990402  1
  F  F173  1  0.00000324  0.16555952  0.82338074  1
  F  F174  1  0.00003771  0.51506377  0.16673403  1
  F  F175  1  -0.00025501  0.50185121  0.49998496  1
  F  F176  1  -0.00023403  0.50158849  0.83316785  1
  F  F177  1  -0.00002168  0.82496779  0.16664249  1
  F  F178  1  0.33215832  0.18086497  0.16666349  1
  F  F179  1  0.33139311  0.16677188  0.48330857  1
  F  F180  1  0.33147315  0.16643896  0.85005386  1
  F  F181  1  0.33403567  0.48908458  0.16656648  1
  F  F182  1  0.33586078  0.82401268  0.16679015  1
  F  F183  1  0.33376779  0.83304653  0.49774652  1
  F  F184  1  0.33375130  0.83314760  0.83553603  1
  F  F185  1  0.66821520  0.14923395  0.16672252  1
  F  F186  1  0.66422732  0.16627976  0.50526251  1
  F  F187  1  0.66426741  0.16641116  0.82807179  1
  F  F188  1  0.66858100  0.49098832  0.16688118  1
  F  F189  1  0.66667113  0.50001737  0.49678307  1
  F  F190  1  0.66670356  0.50016564  0.83631871  1
  F  F191  1  0.66839856  0.85291636  0.16666426  1
  F  F192  1  0.17788020  -0.00008484  0.16666030  1
  F  F193  1  0.15024335  0.33168112  0.16664432  1
  F  F194  1  0.16490417  0.33271137  0.50107462  1
  F  F195  1  0.16551459  0.33268176  0.83268552  1
  F  F196  1  0.17591413  0.66413922  0.16679745  1
  F  F197  1  0.16697225  0.66616928  0.49774783  1
  F  F198  1  0.16693218  0.66617927  0.83556968  1
  F  F199  1  0.48541274  0.00011508  0.16675055  1
  F  F200  1  0.49836225  0.00033128  0.49970595  1
  F  F201  1  0.49870311  0.00032317  0.83340614  1
  F  F202  1  0.50916755  0.33125537  0.16685524  1
  F  F203  1  0.50001354  0.33332109  0.49685804  1
  F  F204  1  0.49976240  0.33326497  0.83635264  1
  F  F205  1  0.51108267  0.66598236  0.16654022  1
  F  F206  1  0.83429219  0.00021545  0.50965629  1
  F  F207  1  0.83421046  0.00014977  0.82363469  1
  F  F208  1  0.84746475  0.32995149  0.16670730  1
  F  F209  1  0.83351939  0.33557917  0.50531794  1
  F  F210  1  0.83350814  0.33555166  0.82800779  1
  F  F211  1  0.81909133  0.66975329  0.16664552  1
  F  F212  1  0.83323552  0.66863648  0.48315072  1
  F  F213  1  0.83350015  0.66852057  0.85018589  1
  F  F214  1  0.15039647  0.16560272  0.00164465  1
  F  F215  1  0.15050073  0.16563600  0.33169553  1
  F  F216  1  0.17924744  0.16656331  0.66669245  1
  F  F217  1  0.16619795  0.49819801  0.33323242  1
  F  F218  1  0.16806538  0.49986008  0.66664963  1
  F  F219  1  0.16943625  0.83056703  0.66663259  1
  F  F220  1  0.50686673  0.16593842  0.00023790  1
  F  F221  1  0.50678297  0.16600039  0.33312819  1
  F  F222  1  0.48465694  0.16761408  0.66662319  1
  F  F223  1  0.49812323  0.50187237  0.00042689  1
  F  F224  1  0.49756609  0.50244107  0.33291526  1
  F  F225  1  0.50198386  0.83391339  0.33331559  1
  F  F226  1  0.83072687  0.16594745  -0.00102460  1
  F  F227  1  0.83067621  0.16601486  0.33441827  1
  F  F228  1  0.82835924  0.17153507  0.66664769  1
  F  F229  1  0.83387194  0.49335616  0.00024575  1
  F  F230  1  0.83384094  0.49339044  0.33309987  1
  F  F231  1  0.83229734  0.51538542  0.66662671  1
  F  F232  1  0.83421470  0.85265689  0.00192710  1
  F  F233  1  0.83420773  0.85263014  0.33142357  1
  F  F234  1  0.83337803  0.82080403  0.66669703  1
  K  K235  1  0.00573263  -0.00311338  -0.00900465  1
  K  K236  1  0.00557173  -0.00299482  0.34262924  1
  K  K237  1  -0.00406028  0.00417937  0.66648266  1
  K  K238  1  -0.00330786  0.33739482  -0.00309109  1
  K  K239  1  -0.00312167  0.33746774  0.33619690  1
  K  K240  1  -0.00449148  0.32768083  0.66660601  1
  K  K241  1  0.00883001  0.66396163  -0.00211305  1
  K  K242  1  0.00905415  0.66442461  0.33517029  1
  K  K243  1  0.00097918  0.67035761  0.66641132  1
  K  K244  1  0.33580170  -0.00886527  -0.00212893  1
  K  K245  1  0.33535987  -0.00901276  0.33523462  1
  K  K246  1  0.32950475  -0.00094721  0.66648472  1
  K  K247  1  0.34220797  0.33581405  0.00062323  1
  K  K248  1  0.34285154  0.33580558  0.33227011  1
  K  K249  1  0.32668507  0.33475704  0.66636459  1
  K  K250  1  0.33256065  0.66727455  0.00224002  1
  K  K251  1  0.33351190  0.66637949  0.33086220  1
  K  K252  1  0.33488717  0.66513765  0.66687627  1
  K  K253  1  0.66032739  0.00338745  -0.00558734  1
  K  K254  1  0.66020872  0.00320463  0.33876959  1
  K  K255  1  0.67234051  0.00453934  0.66662173  1
  K  K256  1  0.66541609  0.33474099  -0.00307042  1
  K  K257  1  0.66572961  0.33454545  0.33683969  1
  K  K258  1  0.67088831  0.32907926  0.66641604  1
  K  K259  1  0.66423337  0.65753470  0.00062266  1
  K  K260  1  0.66424972  0.65690789  0.33222915  1
  K  K261  1  0.66514259  0.67323636  0.66643658  1
  Cd  Cd262  1  0.16584579  0.16625091  0.49807326  1
  Cd  Cd263  1  0.16597490  0.16614875  0.83531173  1
  Cd  Cd264  1  0.16518338  0.49475888  0.16664199  1
  Cd  Cd265  1  0.16936625  0.83052376  0.16664351  1
  Cd  Cd266  1  0.49890396  0.16368263  0.16666969  1
  Cd  Cd267  1  0.49402118  0.16696086  0.49980144  1
  Cd  Cd268  1  0.49407779  0.16690791  0.83343343  1
  Cd  Cd269  1  0.50309815  0.49694095  0.16664283  1
  Cd  Cd270  1  0.50539451  0.83483891  0.16662860  1
  Cd  Cd271  1  0.83217994  0.16451619  0.16666202  1
  Cd  Cd272  1  0.83167813  0.16829144  0.50196185  1
  Cd  Cd273  1  0.83171649  0.16824996  0.83139341  1
  Cd  Cd274  1  0.83628162  0.50120258  0.16665583  1
  Cd  Cd275  1  0.83311573  0.50594993  0.49973995  1
  Cd  Cd276  1  0.83315172  0.50586481  0.83347534  1
  Cd  Cd277  1  0.83437050  0.83665115  0.16669148  1
  Cd  Cd278  1  0.83383039  0.83423506  0.49791383  1
  F  F279  1  -0.03495869  0.08951091  0.16676221  1
  F  F280  1  -0.00035443  0.16466434  0.52014484  1
  F  F281  1  -0.00024645  0.16473840  0.81310656  1
  F  F282  1  -0.00015256  0.53012751  0.16677871  1
  F  F283  1  -0.00061143  0.50370236  0.49995333  1
  F  F284  1  -0.00057575  0.50317693  0.83303454  1
  F  F285  1  0.00010854  0.81168211  0.16660162  1
  F  F286  1  0.00038419  0.83177703  0.50166173  1
  F  F287  1  0.00048052  0.83167262  0.83209472  1
  F  F288  1  0.33097647  0.19512118  0.16661135  1
  F  F289  1  0.32943010  0.16692686  0.46664453  1
  F  F290  1  0.32960729  0.16624148  0.86678059  1
  F  F291  1  0.33472292  0.47816914  0.16645114  1
  F  F292  1  0.33334084  0.49804410  0.50187425  1
  F  F293  1  0.33838078  0.81463412  0.16686463  1
  F  F294  1  0.33417942  0.83270983  0.49552040  1
  F  F295  1  0.33416353  0.83293152  0.83774495  1
  F  F296  1  0.66963946  0.13674059  0.16675678  1
  F  F297  1  0.66207466  0.16615562  0.51082894  1
  F  F298  1  0.66213926  0.16639791  0.82255681  1
  F  F299  1  0.67075266  0.48197658  0.16706480  1
  F  F300  1  0.66680188  0.50003466  0.49355642  1
  F  F301  1  0.66687575  0.50033124  0.83934259  1
  F  F302  1  0.67000615  0.86755987  0.16664026  1
  F  F303  1  0.66799146  0.83693304  0.50204601  1
  F  F304  1  0.66804433  0.83562847  0.83218383  1
  F  F305  1  0.18976126  -0.00016650  0.16664382  1
  F  F306  1  0.16823892  -0.00030139  0.50163959  1
  F  F307  1  0.16821810  -0.00041576  0.83205185  1
  F  F308  1  0.13400629  0.33002350  0.16659378  1
  F  F309  1  0.16315641  0.33199519  0.50214935  1
  F  F310  1  0.16432998  0.33193223  0.83207031  1
  F  F311  1  0.18534785  0.66161718  0.16690000  1
  F  F312  1  0.16729255  0.66576607  0.49549577  1
  F  F313  1  0.16716515  0.66578978  0.83783867  1
  F  F314  1  0.47013153  0.00023005  0.16682496  1
  F  F315  1  0.49642033  0.00066248  0.49971608  1
  F  F316  1  0.49704393  0.00064628  0.83314156  1
  F  F317  1  0.51809287  0.32918544  0.16704270  1
  F  F318  1  0.50002959  0.33320355  0.49371365  1
  F  F319  1  0.49952476  0.33310239  0.83935731  1
  F  F320  1  0.52192307  0.66528997  0.16641265  1
  F  F321  1  0.50193970  0.66661672  0.50193547  1
  F  F322  1  0.50154780  0.66657425  0.83192613  1
  F  F323  1  0.83526057  0.00043082  0.52000658  1
  F  F324  1  0.83509461  0.00029946  0.81326143  1
  F  F325  1  0.86161805  0.32944357  0.16672618  1
  F  F326  1  0.83370663  0.33783305  0.51087820  1
  F  F327  1  0.83371125  0.33776454  0.82249613  1
  F  F328  1  0.80487127  0.66996592  0.16660256  1
  F  F329  1  0.83313892  0.67059815  0.46654377  1
  F  F330  1  0.83369530  0.67037981  0.86685229  1
  F  F331  1  0.13444801  0.16482493  0.00354196  1
  F  F332  1  0.13458834  0.16484759  0.32978694  1
  F  F333  1  0.19182210  0.16649020  0.66672402  1
  F  F334  1  0.16512261  0.49708100  0.00034989  1
  F  F335  1  0.16569082  0.49639600  0.33299628  1
  F  F336  1  0.16946018  0.49972012  0.66664451  1
  F  F337  1  0.16565677  0.83442489  0.00095342  1
  F  F338  1  0.16492946  0.83501811  0.33232753  1
  F  F339  1  0.17219973  0.82777034  0.66660427  1
  F  F340  1  0.51339673  0.16548463  0.00073159  1
  F  F341  1  0.51326205  0.16559686  0.33263642  1
  F  F342  1  0.46928649  0.16861124  0.66660261  1
  F  F343  1  0.49626311  0.50374467  0.00095526  1
  F  F344  1  0.49514193  0.50488206  0.33237096  1
  F  F345  1  0.50184628  0.49821349  0.66666549  1
  F  F346  1  0.50300040  0.83506368  0.00032070  1
  F  F347  1  0.50366383  0.83423058  0.33301121  1
  F  F348  1  0.50031088  0.83060762  0.66662686  1
  F  F349  1  0.82813720  0.17014813  -0.00220079  1
  F  F350  1  0.82804072  0.17030245  0.33562753  1
  F  F351  1  0.82343422  0.17646147  0.66663585  1
  F  F352  1  0.83443335  0.48671231  0.00071957  1
  F  F353  1  0.83437953  0.48678084  0.33260913  1
  F  F354  1  0.83127658  0.53077077  0.66660191  1
  F  F355  1  0.83511289  0.86706040  0.00370262  1
  F  F356  1  0.83510382  0.86698745  0.32963817  1
  F  F357  1  0.83347181  0.80821662  0.66673450  1
  K  K358  1  0.00467799  0.99532996  0.99041416  1
  K  K359  1  0.00450793  0.99550770  0.34332989  1
  K  K360  1  -0.00622642  0.00626898  0.66655926  1
  K  K361  1  -0.00501738  0.33889170  -0.00458099  1
  K  K362  1  -0.00471907  0.33912094  0.33753566  1
  K  K363  1  -0.00680781  0.32467104  0.66663343  1
  K  K364  1  0.01318943  0.66314294  -0.00311387  1
  K  K365  1  0.01354468  0.66371758  0.33599578  1
  K  K366  1  0.00139809  0.67238657  0.66634138  1
  K  K367  1  0.33686730  0.98670210  -0.00305756  1
  K  K368  1  0.33632660  0.98648088  0.33603657  1
  K  K369  1  0.32755117  -0.00142075  0.66643305  1
  K  K370  1  0.34658761  0.33687079  0.00100556  1
  K  K371  1  0.34754233  0.33685001  0.33157593  1
  K  K372  1  0.32328885  0.33535299  0.66628574  1
  K  K373  1  0.33211666  0.66776190  0.00343078  1
  K  K374  1  0.33353297  0.66642757  0.32946411  1
  K  K375  1  0.66110505  0.00508126  -0.00453128  1
  K  K376  1  0.66089732  0.00480690  0.33757022  1
  K  K377  1  0.67532622  0.00680901  0.66664581  1
  K  K378  1  0.66488376  0.33503082  0.99543086  1
  K  K379  1  0.66538936  0.33470644  0.33846458  1
  K  K380  1  0.67316181  0.32676057  0.66635903  1
  K  K381  1  0.66310972  0.65338272  0.00097060  1
  K  K382  1  0.66316956  0.65247358  0.33154875  1
  K  K383  1  0.66454322  0.67671285  0.66638980  1
  Cd  Cd384  1  0.16658147  0.16508324  0.16668084  1
  Cd  Cd385  1  0.16446779  0.49213825  0.16661454  1
  Cd  Cd386  1  0.16625868  0.49814266  0.50019952  1
  Cd  Cd387  1  0.16631693  0.49813615  0.83312512  1
  Cd  Cd388  1  0.17090726  0.82904370  0.16663532  1
  Cd  Cd389  1  0.16794045  0.83206034  0.83317862  1
  Cd  Cd390  1  0.49817456  0.16226031  0.16666086  1
  Cd  Cd391  1  0.49108069  0.16695215  0.49965328  1
  Cd  Cd392  1  0.49116914  0.16686270  0.83353911  1
  Cd  Cd393  1  0.50461708  0.49541137  0.16663471  1
  Cd  Cd394  1  0.50791048  0.83552197  0.16659921  1
  Cd  Cd395  1  0.50186198  0.83372950  0.50019696  1
  Cd  Cd396  1  0.50185108  0.83365814  0.83309466  1
  Cd  Cd397  1  0.83160309  0.16840736  0.16665998  1
  Cd  Cd398  1  0.83300317  0.50892486  0.49964011  1
  Cd  Cd399  1  0.83307607  0.50879719  0.83352033  1
  Cd  Cd400  1  0.83488884  0.83334363  0.16670414  1
  Cd  Cd401  1  0.83421481  0.83438382  0.83637959  1
  F  F402  1  0.94763758  0.05339309  0.16680162  1
  F  F403  1  -0.00065951  0.16380042  0.53038567  1
  F  F404  1  -0.00049615  0.16391729  0.80283239  1
  F  F405  1  -0.00034283  0.54519124  0.16682338  1
  F  F406  1  -0.00096784  0.50555352  0.49992169  1
  F  F407  1  -0.00091747  0.50476538  0.83290122  1
  F  F408  1  0.00023877  0.79839643  0.16656075  1
  F  F409  1  0.32979462  0.20937739  0.16655920  1
  F  F410  1  0.32746709  0.16708185  0.44998050  1
  F  F411  1  0.32774143  0.16604400  0.88350732  1
  F  F412  1  0.33541018  0.46725370  0.16633580  1
  F  F413  1  0.33339089  0.49779163  0.83116407  1
  F  F414  1  0.34090079  0.80525557  0.16693912  1
  F  F415  1  0.33459105  0.83237312  0.49329428  1
  F  F416  1  0.33457577  0.83271543  0.83995388  1
  F  F417  1  0.67106373  0.12424722  0.16679105  1
  F  F418  1  0.65992200  0.16603149  0.51639538  1
  F  F419  1  0.66001112  0.16638465  0.81704184  1
  F  F420  1  0.67292431  0.47296483  0.16724842  1
  F  F421  1  0.66693262  0.50005196  0.49032977  1
  F  F422  1  0.66704793  0.50049684  0.84236646  1
  F  F423  1  0.67161373  0.88220339  0.16661627  1
  F  F424  1  0.20164233  -0.00024815  0.16662734  1
  F  F425  1  0.11776922  0.32836588  0.16654323  1
  F  F426  1  0.16140864  0.33127902  0.50322408  1
  F  F427  1  0.16314536  0.33118270  0.83145510  1
  F  F428  1  0.19478158  0.65909513  0.16700255  1
  F  F429  1  0.16761286  0.66536285  0.49324370  1
  F  F430  1  0.16739812  0.66540029  0.84010765  1
  F  F431  1  0.45485033  0.00034501  0.16689937  1
  F  F432  1  0.49447840  0.00099368  0.49972622  1
  F  F433  1  0.49538475  0.00096938  0.83287698  1
  F  F434  1  0.52701819  0.32711551  0.16723017  1
  F  F435  1  0.50004563  0.33308601  0.49056925  1
  F  F436  1  0.49928712  0.33293980  0.84236197  1
  F  F437  1  0.53276347  0.66459757  0.16628509  1
  F  F438  1  0.83622896  0.00064620  0.53035688  1
  F  F439  1  0.83597876  0.00044916  0.80288817  1
  F  F440  1  0.87577134  0.32893564  0.16674507  1
  F  F441  1  0.83389386  0.34008693  0.51643847  1
  F  F442  1  0.83391437  0.33997742  0.81698446  1
  F  F443  1  0.79065120  0.67017854  0.16655959  1
  F  F444  1  0.83304232  0.67255983  0.44993682  1
  F  F445  1  0.83389044  0.67223905  0.88351870  1
  F  F446  1  0.11849954  0.16404714  0.00543927  1
  F  F447  1  0.11867596  0.16405917  0.32787835  1
  F  F448  1  0.20439676  0.16641710  0.66675559  1
  F  F449  1  0.16518368  0.49459399  0.33276014  1
  F  F450  1  0.17085499  0.49958015  0.66663939  1
  F  F451  1  0.17496320  0.82497366  0.66657596  1
  F  F452  1  0.51992673  0.16503084  0.00122527  1
  F  F453  1  0.51974114  0.16519332  0.33214466  1
  F  F454  1  0.45391605  0.16960839  0.66658202  1
  F  F455  1  0.49440300  0.50561698  0.00148363  1
  F  F456  1  0.49271778  0.50732306  0.33182666  1
  F  F457  1  0.50534380  0.83454777  0.33270682  1
  F  F458  1  0.82554752  0.17434881  -0.00337697  1
  F  F459  1  0.82540523  0.17459003  0.33683680  1
  F  F460  1  0.81850919  0.18138788  0.66662401  1
  F  F461  1  0.83499475  0.48006846  0.00119338  1
  F  F462  1  0.83491812  0.48017124  0.33211840  1
  F  F463  1  0.83025581  0.54615611  0.66657712  1
  F  F464  1  0.83601107  0.88146392  0.00547813  1
  F  F465  1  0.83599991  0.88134477  0.32785278  1
  F  F466  1  0.83356560  0.79562922  0.66677198  1
  K  K467  1  0.00311860  0.99427225  0.99099506  1
  K  K468  1  0.00300509  0.99443994  0.34262927  1
  K  K469  1  -0.00334500  0.33967045  -0.00561909  1
  K  K470  1  -0.00314600  0.33980372  0.33874690  1
  K  K471  1  0.33604531  0.99109765  -0.00207544  1
  K  K472  1  0.33560493  0.99096287  0.33519753  1
  K  K473  1  0.66260294  0.00335041  -0.00305794  1
  K  K474  1  0.66254435  0.00318019  0.33621993  1
  Cd  Cd475  1  0.16329857  0.16561092  0.16667599  1
  Cd  Cd476  1  0.83549114  0.16782701  0.16666209  1
  F  F477  1  0.91117641  0.03564592  0.16676221  1
  F  F478  1  0.67055607  0.13839432  0.16675688  1
  F  F479  1  0.18834353  -0.00011490  0.16664602  1
  F  F480  1  0.13242173  0.32998020  0.16659158  1
  F  F481  1  0.13291499  0.16492589  0.00367672  1
  F  F482  1  0.13302622  0.16493555  0.32965518  1
  F  F483  1  0.82978305  0.17179367  -0.00220078  1
  F  F484  1  0.82969458  0.17195611  0.33562748  1
  K  K485  1  0.00155920  0.99321453  0.99157597  1
  K  K486  1  0.00150224  0.99337218  0.34192865  1
  K  K487  1  -0.00167263  0.34044921  -0.00665719  1
  K  K488  1  -0.00157292  0.34048651  0.33995813  1
  K  K489  1  0.33522331  0.99549319  -0.00109333  1
  K  K490  1  0.33488326  0.99544487  0.33435849  1
  K  K491  1  0.66410084  0.00161957  -0.00158461  1
  K  K492  1  0.66419137  0.00155348  0.33486964  1
  K  K493  1  0.66552031  0.33402326  0.99842820  1
  Cd  Cd494  1  0.16001568  0.16613861  0.16667114  1
  Cd  Cd495  1  0.83937919  0.16724666  0.16666421  1
  F  F496  1  0.87471525  0.01789876  0.16672281  1
  F  F497  1  0.00007960  0.82212804  0.16664022  1
  F  F498  1  0.33023773  0.18091814  0.16664538  1
  F  F499  1  0.67004841  0.15254141  0.16672270  1
  F  F500  1  0.66831210  0.84974755  0.16666872  1
  F  F501  1  0.17504472  0.00001836  0.16666470  1
  F  F502  1  0.14707423  0.33159451  0.16663992  1
  F  F503  1  0.85077262  0.33178444  0.16670722  1
  F  F504  1  0.81914450  0.66783247  0.16666365  1
  F  F505  1  0.14733045  0.16580463  0.00191416  1
  F  F506  1  0.14737648  0.16581193  0.33143202  1
  F  F507  1  0.83401858  0.16923854  -0.00102460  1
  F  F508  1  0.83398393  0.16932220  0.33441816  1
  F  F509  1  0.83441676  0.84959141  0.00165746  1
  F  F510  1  0.83438366  0.84950625  0.33168726  1
  K  K511  1  -0.00000019  0.99215682  0.99215687  1
  K  K512  1  -0.00000060  0.99230442  0.34122803  1
  K  K513  1  -0.00000025  0.34122796  -0.00769529  1
  K  K514  1  0.00000015  0.34116929  0.34116937  1
  K  K515  1  0.33440132  0.99988874  -0.00011121  1
  K  K516  1  0.33416159  0.99992686  0.33351945  1
  K  K517  1  0.66559873  -0.00011128  -0.00011127  1
  K  K518  1  0.66583840  -0.00007323  0.33351935  1
  Cd  Cd519  1  0.15673278  0.16666629  0.16666629  1
  Cd  Cd520  1  0.84326724  0.16666631  0.16666632  1
  F  F521  1  0.83825408  0.00015159  0.16668340  1
  F  F522  1  0.00000001  0.83399385  0.16667996  1
  F  F523  1  0.33045928  0.16668852  0.16668847  1
  F  F524  1  0.66954075  0.16668851  0.16668853  1
  F  F525  1  0.66666129  0.83351963  0.16669494  1
  F  F526  1  0.16174592  0.00015161  0.16668338  1
  F  F527  1  0.16172674  0.33320883  0.16668827  1
  F  F528  1  0.83827326  0.33320884  0.16668829  1
  F  F529  1  0.83339115  0.66665944  0.16671568  1
  F  F530  1  0.16174590  0.16668338  0.00015161  1
  F  F531  1  0.16172674  0.16668831  0.33320885  1
  F  F532  1  0.83825411  0.16668340  0.00015159  1
  F  F533  1  0.83827328  0.16668828  0.33320884  1
  F  F534  1  0.83361961  0.83365516  -0.00025287  1
  F  F535  1  0.83357554  0.83358699  0.33360450  1
